  7
c5h3_aggregates_ag_a_004_b_003_003_selected_result_007_001_ag_a_004_b_003.xyz
H      0.42431     1.40731     0.23948
H     -1.88072    -0.29046     0.71539
C      0.31605     0.33390     0.30677
C     -0.89476    -0.42350     0.33144
C      1.04262    -0.66637    -0.41285
C     -0.27982    -0.94030    -0.83597
H      2.03484    -0.77605    -0.78933
