  8
c5h3_aggregates_ag_a_005_b_003_005_selected_result_019_000_ag_a_005_b_003.xyz
C      0.46418    -0.08796    -0.34712
H      0.04083    -1.82020    -1.99271
C      0.39130    -0.92112    -1.54632
C     -0.11119     0.33898     0.78095
H      1.56139     0.92980    -2.25692
H     -0.90603     0.97247     2.79927
C     -0.44800     0.63470     1.91964
C      1.02876     0.23193    -1.65714
