  7
c5h3_aggregates_ag_a_005_b_002_004_selected_result_006_003_ag_a_005_b_002.xyz
H     -0.06679    -0.13155    -2.96645
C     -0.03486     0.25512    -0.74495
C     -0.05480     0.05912    -1.93498
C     -0.01792     0.53080     0.59612
H      0.11474    -0.83189     2.44861
C      0.04433     0.05637     1.86647
C     -0.04782     1.45339     1.70531
