  8
c5h3_aggregates_ag_a_005_b_003_004_selected_result_017_000_ag_a_005_b_003.xyz
H      0.01271    -0.32601    -3.15224
C     -0.01474     0.07397    -0.92729
C     -0.11133    -0.13774    -2.12879
C     -0.15207     0.31242     0.37960
H      0.14508    -0.92114     2.44556
C      0.06341    -0.11291     1.75928
C      0.09926     1.18808     1.52543
H      0.22965     2.18001     1.88483
