  7
c5h3_aggregates_ag_a_004_b_003_007_selected_result_015_002_ag_a_004_b_003.xyz
H      0.15547     0.55391     1.80401
C     -0.64675    -0.51681    -1.83261
C     -1.70094    -0.19610    -2.34349
H      0.08302     0.87410     2.51244
H      2.06854    -0.88493     0.52838
C      0.36068    -0.63218    -0.92420
C      1.25600    -0.75804    -0.12393
