  7
c5h3_aggregates_ag_a_005_b_002_006_selected_result_022_001_ag_a_005_b_002.xyz
H     -3.08434     0.95316     2.31543
C     -0.30071     0.20716     0.19331
H      2.48832    -0.48841    -1.93967
C      0.71027    -0.04229    -0.58144
C      1.67394    -0.28551    -1.31315
C     -1.30810     0.48548     0.96255
C     -2.26999     0.72229     1.69857
