  8
c5h3_aggregates_ag_a_005_b_003_004_selected_result_025_002_ag_a_005_b_003.xyz
H     -0.85994     2.38552     0.54222
C      0.45014    -0.32969     0.49833
C      0.21594    -1.93913    -1.51505
C      0.55654     0.43863     1.44560
H     -1.21853     3.07734     0.50216
C      0.10123    -2.74005    -2.52273
C      0.32670    -1.14496    -0.52772
H      0.66362     1.07975     2.26920
