  8
c5h3_aggregates_ag_a_005_b_003_006_selected_result_005_001_ag_a_005_b_003.xyz
H     -2.81996     1.01708     1.29038
C      0.44806    -0.44477     0.65339
H      2.10764    -0.22099    -2.57430
C      1.06994    -0.35593    -0.57090
C      1.62743    -0.28275    -1.64425
C     -0.78861     0.11155     0.88790
C     -1.87783     0.59690     1.10255
H      0.94628    -0.96933     1.45711
