  7
c5h3_aggregates_ag_a_004_b_003_005_selected_result_021_000_ag_a_004_b_003.xyz
C     -0.77308     0.10609     0.11122
H      0.14101    -1.20452    -1.44446
C      0.32646    -0.35589    -0.79215
C     -0.06863     0.23666     1.28646
H      0.85987     0.43971    -1.29901
H     -0.25342     0.53166     2.29387
C      0.77355    -0.61598     0.60996
