  8
c5h3_aggregates_ag_a_005_b_003_001_selected_result_022_002_ag_a_005_b_003.xyz
H      1.24315     0.40529    -2.47789
C      0.56674    -0.01690    -0.53383
C      1.43208    -0.09772    -1.54527
H      2.34178    -0.66561    -1.45224
C     -1.09883     0.14349     1.42147
C     -1.89026     0.21791     2.33926
C     -0.23738     0.05720     0.40470
H     -2.56327     0.28651     3.13952
