  8
c5h3_aggregates_ag_a_005_b_003_006_selected_result_030_001_ag_a_005_b_003.xyz
H     -2.59706     0.69509     2.15301
C     -0.05400    -0.00882    -0.09464
H      2.78023    -0.71985    -2.16212
C      1.00631    -0.26478    -0.80152
C      1.96629    -0.51639    -1.53503
C     -0.89034     0.26540     0.91515
C     -2.16874     0.48692     1.19109
H     -0.23853     0.31093     1.79376
