  8
c5h3_aggregates_ag_a_005_b_003_006_selected_result_006_000_ag_a_005_b_003.xyz
H     -2.22672    -0.59140     1.46305
C     -0.46406     0.13599     0.61042
H      1.26858    -0.59808    -2.16712
C      0.65130     0.08082    -0.01417
C      1.44176    -0.23729    -1.18048
C     -1.58416     0.25617     1.27934
C      2.12252     0.24878    -0.14137
H     -1.91567     1.20730     1.66770
