  7
c5h3_aggregates_ag_a_005_b_002_001_selected_result_016_002_ag_a_005_b_002.xyz
H      1.06575     0.10230    -1.76920
C     -0.50804     0.02059    -0.41604
C      0.77312     0.00674    -0.73620
H      1.55405    -0.09843    -0.00125
C     -1.38577    -0.07930     0.83359
C     -1.44172    -0.21423     2.10183
C     -1.87955     0.08232    -0.51299
