  7
c5h3_aggregates_ag_a_004_b_003_002_selected_result_000_004_ag_a_004_b_003.xyz
H      0.32182     1.93606     0.53997
H     -1.92246    -2.62307    -1.59170
C     -0.74808    -0.99484    -0.52511
C     -0.05962    -0.06927     0.09961
H      1.40864     0.71126     1.35769
C      0.57853     0.89267     0.68548
C     -1.35907    -1.90123    -1.08286
