  7
c5h3_aggregates_ag_a_005_b_002_001_selected_result_001_000_ag_a_005_b_002.xyz
H     -1.61508     0.71436    -1.30361
C     -0.16839    -0.40367     0.01488
C     -0.84878     0.65805    -0.56803
H      1.34924    -1.38121     1.36595
C      0.97296    -0.56953     0.78948
C      0.26511     1.35752    -0.20830
C      0.92343     0.79083     0.86135
