  8
c5h3_aggregates_ag_a_005_b_003_003_selected_result_020_004_ag_a_005_b_003.xyz
H      2.24774     0.76850     1.58540
H     -1.66886    -1.57102    -1.44989
C      0.34977     0.93329     0.28464
C     -0.40708    -0.00558    -0.36340
C      1.42665     1.20549     1.06888
C      0.63736     2.29446     0.65723
H     -2.64974    -2.37798    -2.26030
C     -1.03555    -0.87735    -0.91400
