  7
c5h3_aggregates_ag_a_004_b_003_003_selected_result_022_000_ag_a_004_b_003.xyz
H      2.09394     0.42307     0.42167
H     -1.82222    -1.26798    -1.05287
C     -0.21044    -0.14593    -0.04153
C     -0.85405    -0.94244    -0.77804
C      1.03033     0.43939     0.47006
C     -0.05944     0.95617     0.98346
H     -0.53567     1.64706     1.63708
