  7
c5h3_aggregates_ag_a_004_b_003_005_selected_result_014_000_ag_a_004_b_003.xyz
C     -0.05496     0.14981     0.00506
H      0.04929    -1.24599    -1.54474
C      0.27533    -0.24979    -1.18109
C     -0.42236     0.48254     1.21980
H      0.79693     0.38969    -1.88305
H     -1.03980     1.10735     3.31703
C     -0.75396     0.82318     2.35092
